
     RDKit          3D

 44 47  0  0  0  0  0  0  0  0999 V2000
    3.0789    2.9281    0.4793 O   0  0  0  0  0  0  0  0  0  0  0  0
    2.4731    2.1810   -0.2840 C   0  0  0  0  0  0  0  0  0  0  0  0
    3.0798    1.8050   -1.6295 C   0  0  0  0  0  0  0  0  0  0  0  0
    4.1748    0.7729   -1.4966 C   0  0  0  0  0  0  0  0  0  0  0  0
    5.4471    1.1544   -1.0465 C   0  0  0  0  0  0  0  0  0  0  0  0
    6.4630    0.2073   -0.9006 C   0  0  0  0  0  0  0  0  0  0  0  0
    6.2191   -1.1322   -1.1978 C   0  0  0  0  0  0  0  0  0  0  0  0
    4.9552   -1.5195   -1.6397 C   0  0  0  0  0  0  0  0  0  0  0  0
    4.6179   -3.3412   -2.0368 Br  0  0  0  0  0  0  0  0  0  0  0  0
    3.9343   -0.5772   -1.7897 C   0  0  0  0  0  0  0  0  0  0  0  0
    1.2383    1.5899   -0.0807 N   0  0  0  0  0  0  0  0  0  0  0  0
    0.4688    1.7160    1.0606 C   0  0  0  0  0  0  0  0  0  0  0  0
    0.8220    2.3871    2.1570 N   0  0  0  0  0  0  0  0  0  0  0  0
   -0.2179    2.2488    2.9890 N   0  0  0  0  0  0  0  0  0  0  0  0
   -1.2438    1.4971    2.4855 C   0  0  0  0  0  0  0  0  0  0  0  0
   -2.4757    1.1207    3.0268 C   0  0  0  0  0  0  0  0  0  0  0  0
   -3.3138    0.3484    2.2147 C   0  0  0  0  0  0  0  0  0  0  0  0
   -2.9384   -0.0132    0.9188 C   0  0  0  0  0  0  0  0  0  0  0  0
   -3.8362   -0.8454    0.1843 N   0  0  0  0  0  0  0  0  0  0  0  0
   -3.7057   -2.3158    0.2911 C   0  0  0  0  0  0  0  0  0  0  0  0
   -4.0478   -2.9071   -1.0815 C   0  0  0  0  0  0  0  0  0  0  0  0
   -5.0205   -1.9503   -1.7552 C   0  0  0  0  0  0  0  0  0  0  0  0
   -4.3468   -0.3502   -1.3687 S   0  0  0  0  0  6  0  0  0  0  0  0
   -5.4039    0.6244   -1.2318 O   0  0  0  0  0  0  0  0  0  0  0  0
   -3.1941   -0.1376   -2.2187 O   0  0  0  0  0  0  0  0  0  0  0  0
   -1.6779    0.3378    0.4186 C   0  0  0  0  0  0  0  0  0  0  0  0
   -0.8247    1.1282    1.2125 C   0  0  0  0  0  0  0  0  0  0  0  0
    3.4784    2.7188   -2.0912 H   0  0  0  0  0  0  0  0  0  0  0  0
    2.3035    1.4463   -2.3182 H   0  0  0  0  0  0  0  0  0  0  0  0
    5.6462    2.1944   -0.7927 H   0  0  0  0  0  0  0  0  0  0  0  0
    7.4438    0.5175   -0.5455 H   0  0  0  0  0  0  0  0  0  0  0  0
    7.0149   -1.8625   -1.0771 H   0  0  0  0  0  0  0  0  0  0  0  0
    2.9531   -0.8978   -2.1349 H   0  0  0  0  0  0  0  0  0  0  0  0
    0.8314    1.0310   -0.8169 H   0  0  0  0  0  0  0  0  0  0  0  0
   -0.1630    2.6984    3.8961 H   0  0  0  0  0  0  0  0  0  0  0  0
   -2.7804    1.4171    4.0255 H   0  0  0  0  0  0  0  0  0  0  0  0
   -4.2865    0.0451    2.5973 H   0  0  0  0  0  0  0  0  0  0  0  0
   -4.4256   -2.6678    1.0376 H   0  0  0  0  0  0  0  0  0  0  0  0
   -2.7035   -2.6283    0.5986 H   0  0  0  0  0  0  0  0  0  0  0  0
   -3.1299   -2.9736   -1.6782 H   0  0  0  0  0  0  0  0  0  0  0  0
   -4.4565   -3.9194   -0.9971 H   0  0  0  0  0  0  0  0  0  0  0  0
   -6.0208   -2.0174   -1.3194 H   0  0  0  0  0  0  0  0  0  0  0  0
   -5.0671   -2.0836   -2.8374 H   0  0  0  0  0  0  0  0  0  0  0  0
   -1.3631    0.0240   -0.5694 H   0  0  0  0  0  0  0  0  0  0  0  0
  1  2  2  0
  2  3  1  0
  3  4  1  0
  4  5  2  0
  5  6  1  0
  6  7  2  0
  7  8  1  0
  8  9  1  0
  8 10  2  0
  2 11  1  0
 11 12  1  0
 12 13  2  0
 13 14  1  0
 14 15  1  0
 15 16  2  0
 16 17  1  0
 17 18  2  0
 18 19  1  0
 19 20  1  0
 20 21  1  0
 21 22  1  0
 22 23  1  0
 23 24  2  0
 23 25  2  0
 18 26  1  0
 26 27  2  0
 10  4  1  0
 27 12  1  0
 27 15  1  0
 23 19  1  0
  3 28  1  0
  3 29  1  0
  5 30  1  0
  6 31  1  0
  7 32  1  0
 10 33  1  0
 11 34  1  0
 14 35  1  0
 16 36  1  0
 17 37  1  0
 20 38  1  0
 20 39  1  0
 21 40  1  0
 21 41  1  0
 22 42  1  0
 22 43  1  0
 26 44  1  0
M  END
